#RADIOSS STARTER
#
# Copyright (C) 2023 Altair Engineering Inc. ("Holder")
# Model is licensed by Holder under CC BY-NC 4.0
# (https://creativecommons.org/licenses/by-nc/4.0/legalcode).
#---1----|----2----|----3----|----4----|----5----|----6----|----7----|----8----|----9----|---10----|
#
#-
#- DATE	Thu Nov  9 13:49:25 2023
#--------------------------------------------------------------------------------------------------|
#---1----|----2----|----3----|----4----|----5----|----6----|----7----|----8----|----9----|---10----|
/BEGIN
Impact                                                                          
      2023         0
                  Mg                  mm                   s
                  Mg                  mm                   s
#---1----|----2----|----3----|----4----|----5----|----6----|----7----|----8----|----9----|---10----|
#-  1. CONTROL CARDS:
#---1----|----2----|----3----|----4----|----5----|----6----|----7----|----8----|----9----|---10----|
/TITLE

#---1----|----2----|----3----|----4----|----5----|----6----|----7----|----8----|----9----|---10----|
#-  2. MATERIALS:
#---1----|----2----|----3----|----4----|----5----|----6----|----7----|----8----|----9----|---10----|
/MAT/PLAS_JOHNS/1
Alu
#              RHO_I
              2.7E-9                   0
#                  E                  Nu     Iflag
               67000                  .3         1
#              SIG_Y                 UTS                EUTS           EPS_p_max            SIG_max0
                 414                 483                 .13                   0                   0
#                  c           EPS_DOT_0       ICC   Fsmooth               F_cut               Chard
                   0                   0         0         0                   0                   0
#                  m              T_melt              rhoC_p                 T_r
                   0                   0                   0                   0
/FAIL/TENSSTRAIN/1
#                Et1                 Et2  funct_ID                Eps1                Eps2    S-Flag
                  .5                 .51         0                   0                   0         0
#  Fail_Id
         2
#---1----|----2----|----3----|----4----|----5----|----6----|----7----|----8----|----9----|---10----|
/MAT/PLAS_JOHNS/2
Steel
#              RHO_I
              7.8E-9                   0
#                  E                  Nu     Iflag
              210000                  .3         1
#              SIG_Y                 UTS                EUTS           EPS_p_max            SIG_max0
                 448                 531                 .21                   0                   0
#                  c           EPS_DOT_0       ICC   Fsmooth               F_cut               Chard
                   0                   0         0         0                   0                   0
#                  m              T_melt              rhoC_p                 T_r
                   0                   0                   0                   0
#---1----|----2----|----3----|----4----|----5----|----6----|----7----|----8----|----9----|---10----|
#-  3. NODES:
#---1----|----2----|----3----|----4----|----5----|----6----|----7----|----8----|----9----|---10----|
/NODE
         1      -25.0000001565                 -25                -2.5
         2      -25.0000001565                 -25    -.83333333333333
         3      -25.0000001565                 -25    .833333333333333
         4      -25.0000001565                 -25                 2.5
         5      -23.0000001565                 -25                 2.5
         6      -21.0000001565                 -25                 2.5
         7      -19.0000001565                 -25                 2.5
         8      -17.0000001565                 -25                 2.5
         9      -15.0000001565                 -25                 2.5
        10      -13.0000001565                 -25                 2.5
        11      -11.0000001565                 -25                 2.5
        12    -9.0000001565004                 -25                 2.5
        13    -7.0000001565004                 -25                 2.5
        14    -5.0000001565004                 -25                 2.5
        15    -3.0000001565004                 -25                 2.5
        16    -1.0000001565004                 -25                 2.5
        17    .999999843499602                 -25                 2.5
        18     2.9999998434996                 -25                 2.5
        19     4.9999998434996                 -25                 2.5
        20     6.9999998434996                 -25                 2.5
# ... 2949 like lines cut
#---1----|----2----|----3----|----4----|----5----|----6----|----7----|----8----|----9----|---10----|
#-  4. BOUNDARY CONDITIONS:
#---1----|----2----|----3----|----4----|----5----|----6----|----7----|----8----|----9----|---10----|
/BCS/3
loadcol2
#  Tra rot   skew_ID  grnod_ID
   111 000         0         5
/GRNOD/NODE/5
set2
         1         2         3         4         5         6         7         8         9        10
        11        12        13        14        15        16        17        18        19        20
        21        22        23        24        25        26        27        28        29        30
        31        32        33        34        35        36        37        38        39        40
        41        42        43        44        45        46        47        48        49        50
        51        52        53        54        55        56        57        58        59        60
        61        62        63        64        65        66        67        68        69        70
        71        72        73        74        75        76        77        78        79        80
        81        82        83        84        85        86        87        88        89        90
        91        92        93        94        95        96        97        98        99       100
       101       102       103       104       201       202       203       204       301       302
       303       304       401       402       403       404       501       502       503       504
       601       602       603       604       701       702       703       704       729       826
       827       828       829       854       951       952       953       954      1003      1004
      1101      1102      1103      1104      1201      1202      1203      1204      1301      1302
      1303      1304      1377      1378      1379      1428      1429      1431      1432      1434
      1435      1437      1438      1440      1441      1443      1444      1446      1447      1449
      1450      1452      1453      1455      1456      1458      1459      1461      1462      1464
      1465      1467      1468      1470      1471      1473      1474      1476      1477      1479
      1480      1482      1483      1485      1486      1488      1489      1491      1492      1494
# ... 20 like lines cut
#---1----|----2----|----3----|----4----|----5----|----6----|----7----|----8----|----9----|---10----|
#-  5. PARTS:
#---1----|----2----|----3----|----4----|----5----|----6----|----7----|----8----|----9----|---10----|
/PART/1
Plate
         1         1         0
#---1----|----2----|----3----|----4----|----5----|----6----|----7----|----8----|----9----|---10----|
# BRICK elements of /PART/1/Plate:
#---1----|----2----|----3----|----4----|----5----|----6----|----7----|----8----|----9----|---10----|
/BRICK/1
        76        37        98        94        36       105       106       107       108
        77       105       106       107       108       109       110       111       112
        78       109       110       111       112       113       114       115       116
        79       113       114       115       116       117       118       119       120
        80       117       118       119       120       121       122       123       124
        81       121       122       123       124       125       126       127       128
        82       125       126       127       128       129       130       131       132
        83       129       130       131       132       133       134       135       136
        84       133       134       135       136       137       138       139       140
        85       137       138       139       140       141       142       143       144
        86       141       142       143       144       145       146       147       148
        87       145       146       147       148       149       150       151       152
        88       149       150       151       152       153       154       155       156
        89       153       154       155       156       157       158       159       160
        90       157       158       159       160       161       162       163       164
        91       161       162       163       164       165       166       167       168
        92       165       166       167       168       169       170       171       172
        93       169       170       171       172       173       174       175       176
        94       173       174       175       176       177       178       179       180
        95       177       178       179       180       181       182       183       184
# ... 1855 like lines cut
#---1----|----2----|----3----|----4----|----5----|----6----|----7----|----8----|----9----|---10----|
/PART/2
Impactor
         2         2         0
#---1----|----2----|----3----|----4----|----5----|----6----|----7----|----8----|----9----|---10----|
# SHELL elements of /PART/2/Impactor:
#---1----|----2----|----3----|----4----|----5----|----6----|----7----|----8----|----9----|---10----|
/SHELL/2
         1      2710      2711      2720      2719
         2      2720      2711      2712      2721
         3      2721      2712      2713      2722
         4      2722      2713      2714      2723
         5      2723      2714      2715      2724
         6      2724      2715      2716      2725
         7      2725      2716      2717      2726
         8      2726      2717      2718      2727
         9      2709      2710      2719      2728
        10      2708      2709      2728      2729
        11      2707      2708      2729      2730
        12      2706      2707      2730      2731
        13      2705      2706      2731      2732
        14      2709      2708      2734      2733
        15      2734      2708      2707      2735
        16      2735      2707      2706      2736
        17      2736      2706      2705      2737
        18      2710      2709      2733      2738
        19      2711      2710      2738      2739
        20      2712      2711      2739      2740
# ... 242 like lines cut
#---1----|----2----|----3----|----4----|----5----|----6----|----7----|----8----|----9----|---10----|
/PART/5
Plate_SPH
         3         1         0
#---1----|----2----|----3----|----4----|----5----|----6----|----7----|----8----|----9----|---10----|
#-  6. GEOMETRICAL SETS:
#---1----|----2----|----3----|----4----|----5----|----6----|----7----|----8----|----9----|---10----|
/PROP/SOLID/1
PROP_SOLID
#   Isolid    Ismstr               Icpre  Itetra10     Inpts   Itetra4    Iframe                  dn
        24         2                   0         0         0         0         2                   0
#                q_a                 q_b                   h            LAMBDA_V                MU_V
                   0                   0                   0                   0                   0
#             dt_min
                   0
#     NdirSPHPART_ID
         2         5
#---1----|----2----|----3----|----4----|----5----|----6----|----7----|----8----|----9----|---10----|
/PROP/SHELL/2
PROP_SHELL
#   Ishell    Ismstr     Ish3n    Idrill                            P_thick_fail
         1         0         0         0                                       0
#                 hm                  hf                  hr                  dm                  dn
                   0                   0                   0                   0                   0
#        N   Istrain               Thick              Ashear              Ithick     Iplas
         0         0                   1                   0                   0         0
#---1----|----2----|----3----|----4----|----5----|----6----|----7----|----8----|----9----|---10----|
/PROP/TYPE34/3
SPH
#                 mp                  qa                  qb            alpha_cs   skew_ID      h_1D
                   0                   2                   1                   0         0         0
#    order                   h             xi_stab
         0                   1                   0
#---1----|----2----|----3----|----4----|----5----|----6----|----7----|----8----|----9----|---10----|
#-  7. INITIAL VELOCITIES:
#---1----|----2----|----3----|----4----|----5----|----6----|----7----|----8----|----9----|---10----|
/INIVEL/TRA/1
Impactor_Velocity
#                 Vx                  Vy                  Vz   Gnod_id   Skew_id
                   0                   0             -100000         2         0
/GRNOD/NODE/2
set1
      2969
#---1----|----2----|----3----|----4----|----5----|----6----|----7----|----8----|----9----|---10----|
#-  8. INTERFACES:
#---1----|----2----|----3----|----4----|----5----|----6----|----7----|----8----|----9----|---10----|
/INTER/TYPE19/1
group1
# Secon_id   Main_id      Istf      Ithe      Igap     Iedge      Ibag      Idel     Icurv
         3         4         4         0         0         0         0         1         0
#          Gap_scale             Gap_max
                   0                   0
#              Stmin               Stmax          %mesh_size               dtmin  Irem_gap   Irem_i2
                1000                   0                   0                   0         0         0
#              Stfac                Fric             Gap_min              Tstart               Tstop
                   0                  .1                  .5                   0                   0
#      IBC                        Inacti                VisS                VisF              Bumult
       000                             0                   0                   0                   0
#    Ifric    Ifiltr               Xfreq     Iform   Isensor                                 fric_ID
         0         0                   0         2         0                                       0
/SURF/PART/ALL/3
SurfPartForInterfaceId_1
         2
/SURF/PART/ALL/4
SurfPartForInterfaceId_1
         1
#---1----|----2----|----3----|----4----|----5----|----6----|----7----|----8----|----9----|---10----|
#-  9. RIGID BODIES:
#---1----|----2----|----3----|----4----|----5----|----6----|----7----|----8----|----9----|---10----|
/RBODY/2138
Impactor
#     RBID     ISENS     NSKEW    ISPHER                MASS   Gnod_id     IKREM      ICOG   Surf_id
      2969         0         0         0                .001         1         0         1         0
#                Jxx                 Jyy                 Jzz
                   0                   0                   0
#                Jxy                 Jyz                 Jxz
                   0                   0                   0
#  Ioptoff               Ifail
         0         0         0
/GRNOD/PART/1
rigid2213nodeset
         2
#---1----|----2----|----3----|----4----|----5----|----6----|----7----|----8----|----9----|---10----|
#- 10. NODE GROUPS:
#---1----|----2----|----3----|----4----|----5----|----6----|----7----|----8----|----9----|---10----|
/GRNOD/NODE/6
rigid2139nodeset
       169       170       171       172       173       174       175       176       177       178
       179       180       181       182       183       184       185       186       187       188
       189       190       191       192       193       194       195       196       197       198
       199       200       201       202       203       204       269       270       271       272
       273       274       275       276       277       278       279       280       281       282
       283       284       285       286       287       288       289       290       291       292
       293       294       295       296       297       298       299       300       301       302
       303       304       369       370       371       372       373       374       375       376
       377       378       379       380       381       382       383       384       385       386
       387       388       389       390       391       392       393       394       395       396
       397       398       399       400       401       402       403       404       469       470
       471       472       473       474       475       476       477       478       479       480
       481       482       483       484       485       486       487       488       489       490
       491       492       493       494       495       496       497       498       499       500
       501       502       503       504       569       570       571       572       573       574
       575       576       577       578       579       580       581       582       583       584
       585       586       587       588       589       590       591       592       593       594
       595       596       597       598       599       600       601       602       603       604
       669       670       671       672       673       674       675       676       677       678
       679       680       681       682       683       684       685       686       687       688
# ... 74 like lines cut
#---1----|----2----|----3----|----4----|----5----|----6----|----7----|----8----|----9----|---10----|
/GRNOD/PART/7
set3
         5
#---1----|----2----|----3----|----4----|----5----|----6----|----7----|----8----|----9----|---10----|
#- 11. TIME HISTORIES:
#---1----|----2----|----3----|----4----|----5----|----6----|----7----|----8----|----9----|---10----|
/TH/PART/1
TH_ALL_PART
#     var1      var2      var3      var4      var5      var6      var7      var8      var9     var10
DEF       
#     Obj1      Obj2      Obj3      Obj4      Obj5      Obj6      Obj7      Obj8      Obj9     Obj10
         2         1
#---1----|----2----|----3----|----4----|----5----|----6----|----7----|----8----|----9----|---10----|
/TH/BRIC/2
TH_ELEM
#     var1      var2      var3      var4      var5      var6      var7      var8      var9     var10
DEF       
#     Elid                                                      Elname
       210                                                            
       211                                                            
       212                                                            
       213                                                            
       214                                                            
       215                                                            
       387                                                            
       388                                                            
       389                                                            
       390                                                            
       391                                                            
       392                                                            
       393                                                            
       433                                                            
       434                                                            
       435                                                            
       436                                                            
       437                                                            
       438                                                            
       762                                                            
# ... 96 like lines cut
#---1----|----2----|----3----|----4----|----5----|----6----|----7----|----8----|----9----|---10----|
/TH/INTER/3
TH_INTER
#     var1      var2      var3      var4      var5      var6      var7      var8      var9     var10
DEF       
#     Obj1      Obj2      Obj3      Obj4      Obj5      Obj6      Obj7      Obj8      Obj9     Obj10
         1
#---1----|----2----|----3----|----4----|----5----|----6----|----7----|----8----|----9----|---10----|
/END
#---1----|----2----|----3----|----4----|----5----|----6----|----7----|----8----|----9----|---10----|
